
$ Elements and Element Properties for region : 2D_Al7075_Bandeja_0p5mm
PSHELL*  1               1               5.0000002-4     1
*                        1
$ Pset: "2D_Al7075_Bandeja_0p5mm" will be imported as: "pshell.1"
CQUAD4   1000    1       1000    1001    1002    1003
CQUAD4   1001    1       1005    1003    1004    1006
CTRIA3   1002    1       1003    1002    1004
CQUAD4   1003    1       1001    1007    1010    1002
CQUAD4   1004    1       1007    1008    1009    1010
CTRIA3   1005    1       1002    1010    1004
CQUAD4   1006    1       1010    1009    1006    1004
CQUAD4   1007    1       1008    1011    1014    1009
CQUAD4   1008    1       1011    1012    1013    1014
CQUAD4   1009    1       1009    1014    1015    1006
CTRIA3   1010    1       1014    1013    1015
CQUAD4   1011    1       1006    1015    1017    1016
CTRIA3   1012    1       1015    1013    1017
CQUAD4   1013    1       1016    1017    1019    1018
CQUAD4   1014    1       1017    1013    1012    1019
CTRIA3   1015    1       1020    1021    1022
CQUAD4   1016    1       1020    1006    1016    1021
CQUAD4   1017    1       1022    1021    1024    1023
CQUAD4   1018    1       1021    1016    1018    1024
CQUAD4   1019    1       1006    1020    1026    1025
CTRIA3   1020    1       1020    1022    1026
CQUAD4   1021    1       1025    1026    1028    1027
CQUAD4   1022    1       1026    1022    1023    1028
CTRIA3   1023    1       1029    1030    1031
CQUAD4   1024    1       1029    1006    1025    1030
CQUAD4   1025    1       1031    1030    1033    1032
CQUAD4   1026    1       1030    1025    1027    1033
CQUAD4   1027    1       1032    1034    1035    1031
CQUAD4   1028    1       1034    2596    1005    1035
CTRIA3   1029    1       1031    1035    1029
CQUAD4   1030    1       1035    1005    1006    1029
CQUAD4   1031    1       1036    1037    1039    1041
CQUAD4   1032    1       1037    1032    1038    1039
CQUAD4   1033    1       1041    1039    1040    1042
CTRIA3   1034    1       1039    1038    1040
CQUAD4   1035    1       1032    1033    1044    1038
CQUAD4   1036    1       1033    1027    1043    1044
CTRIA3   1037    1       1038    1044    1040
CQUAD4   1038    1       1044    1043    1042    1040
CQUAD4   1039    1       1027    1028    1046    1043
CQUAD4   1040    1       1028    1023    1045    1046
CQUAD4   1041    1       1043    1046    1047    1042
CTRIA3   1042    1       1046    1045    1047
CQUAD4   1043    1       1042    1047    1049    1048
CTRIA3   1044    1       1047    1045    1049
CQUAD4   1045    1       1048    1049    1051    1050
CQUAD4   1046    1       1049    1045    1023    1051
CTRIA3   1047    1       1052    1053    1054
CQUAD4   1048    1       1052    1042    1048    1053
CQUAD4   1049    1       1054    1053    1056    1055
CQUAD4   1050    1       1053    1048    1050    1056
CQUAD4   1051    1       1042    1052    1058    1057
CTRIA3   1052    1       1052    1054    1058
CQUAD4   1053    1       1057    1058    1060    1059
CQUAD4   1054    1       1058    1054    1055    1060
CTRIA3   1055    1       1061    1062    1063
CQUAD4   1056    1       1061    1042    1057    1062
CQUAD4   1057    1       1063    1062    1065    1064
CQUAD4   1058    1       1062    1057    1059    1065
CQUAD4   1059    1       1064    1066    1067    1063
CQUAD4   1060    1       1066    1036    1041    1067
CTRIA3   1061    1       1063    1067    1061
CQUAD4   1062    1       1067    1041    1042    1061
CQUAD4   1063    1       1068    1069    1071    1073
CQUAD4   1064    1       1069    1064    1070    1071
CQUAD4   1065    1       1073    1071    1072    1074
CTRIA3   1066    1       1071    1070    1072
CQUAD4   1067    1       1064    1065    1076    1070
CQUAD4   1068    1       1065    1059    1075    1076
CTRIA3   1069    1       1070    1076    1072
CQUAD4   1070    1       1076    1075    1074    1072
CQUAD4   1071    1       1059    1060    1078    1075
CQUAD4   1072    1       1060    1055    1077    1078
CQUAD4   1073    1       1075    1078    1079    1074
CTRIA3   1074    1       1078    1077    1079
CQUAD4   1075    1       1074    1079    1081    1080
CTRIA3   1076    1       1079    1077    1081
CQUAD4   1077    1       1080    1081    1083    1082
CQUAD4   1078    1       1081    1077    1055    1083
CTRIA3   1079    1       1084    1085    1086
CQUAD4   1080    1       1084    1074    1080    1085
CQUAD4   1081    1       1086    1085    1088    1087
CQUAD4   1082    1       1085    1080    1082    1088
CQUAD4   1083    1       1074    1084    1090    1089
CTRIA3   1084    1       1084    1086    1090
CQUAD4   1085    1       1089    1090    1092    1091
CQUAD4   1086    1       1090    1086    1087    1092
CTRIA3   1087    1       1093    1094    1095
CQUAD4   1088    1       1093    1074    1089    1094
CQUAD4   1089    1       1095    1094    1097    1096
CQUAD4   1090    1       1094    1089    1091    1097
CQUAD4   1091    1       1096    1098    1099    1095
CQUAD4   1092    1       1098    1068    1073    1099
CTRIA3   1093    1       1095    1099    1093
CQUAD4   1094    1       1099    1073    1074    1093
CQUAD4   1095    1       1100    1101    1103    1105
CQUAD4   1096    1       1101    1096    1102    1103
CQUAD4   1097    1       1105    1103    1104    1106
CTRIA3   1098    1       1103    1102    1104
CQUAD4   1099    1       1096    1097    1108    1102
CQUAD4   1100    1       1097    1091    1107    1108
CTRIA3   1101    1       1102    1108    1104
CQUAD4   1102    1       1108    1107    1106    1104
CQUAD4   1103    1       1091    1092    1110    1107
CQUAD4   1104    1       1092    1087    1109    1110
CQUAD4   1105    1       1107    1110    1111    1106
CTRIA3   1106    1       1110    1109    1111
CQUAD4   1107    1       1106    1111    1113    1112
CTRIA3   1108    1       1111    1109    1113
CQUAD4   1109    1       1112    1113    1115    1114
CQUAD4   1110    1       1113    1109    1087    1115
CTRIA3   1111    1       1116    1117    1118
CQUAD4   1112    1       1116    1106    1112    1117
CQUAD4   1113    1       1118    1117    1120    1119
CQUAD4   1114    1       1117    1112    1114    1120
CQUAD4   1115    1       1106    1116    1122    1121
CTRIA3   1116    1       1116    1118    1122
CQUAD4   1117    1       1121    1122    1124    1123
CQUAD4   1118    1       1122    1118    1119    1124
CTRIA3   1119    1       1125    1126    1127
CQUAD4   1120    1       1125    1106    1121    1126
CQUAD4   1121    1       1127    1126    1129    1128
CQUAD4   1122    1       1126    1121    1123    1129
CQUAD4   1123    1       1128    1130    1131    1127
CQUAD4   1124    1       1130    1100    1105    1131
CTRIA3   1125    1       1127    1131    1125
CQUAD4   1126    1       1131    1105    1106    1125
CQUAD4   1127    1       1132    1133    1135    1137
CQUAD4   1128    1       1133    1128    1134    1135
CQUAD4   1129    1       1137    1135    1136    1138
CTRIA3   1130    1       1135    1134    1136
CQUAD4   1131    1       1128    1129    1140    1134
CQUAD4   1132    1       1129    1123    1139    1140
CTRIA3   1133    1       1134    1140    1136
CQUAD4   1134    1       1140    1139    1138    1136
CQUAD4   1135    1       1123    1124    1142    1139
CQUAD4   1136    1       1124    1119    1141    1142
CQUAD4   1137    1       1139    1142    1143    1138
CTRIA3   1138    1       1142    1141    1143
CQUAD4   1139    1       1138    1143    1145    1144
CTRIA3   1140    1       1143    1141    1145
CQUAD4   1141    1       1144    1145    1147    1146
CQUAD4   1142    1       1145    1141    1119    1147
CTRIA3   1143    1       1148    1149    1150
CQUAD4   1144    1       1148    1138    1144    1149
CQUAD4   1145    1       1150    1149    1152    1151
CQUAD4   1146    1       1149    1144    1146    1152
CQUAD4   1147    1       1138    1148    1154    1153
CTRIA3   1148    1       1148    1150    1154
CQUAD4   1149    1       1153    1154    1156    1155
CQUAD4   1150    1       1154    1150    1151    1156
CTRIA3   1151    1       1157    1158    1159
CQUAD4   1152    1       1157    1138    1153    1158
CQUAD4   1153    1       1159    1158    1161    1160
CQUAD4   1154    1       1158    1153    1155    1161
CQUAD4   1155    1       1160    1162    1163    1159
CQUAD4   1156    1       1162    1132    1137    1163
CTRIA3   1157    1       1159    1163    1157
CQUAD4   1158    1       1163    1137    1138    1157
CQUAD4   1159    1       1018    1019    1165    1167
CQUAD4   1160    1       1019    1012    1164    1165
CQUAD4   1161    1       1167    1165    1166    1168
CTRIA3   1162    1       1165    1164    1166
CQUAD4   1163    1       1012    1169    1172    1164
CQUAD4   1164    1       1169    1170    1171    1172
CTRIA3   1165    1       1164    1172    1166
CQUAD4   1166    1       1172    1171    1168    1166
CQUAD4   1167    1       1170    1173    1176    1171
CQUAD4   1168    1       1173    1174    1175    1176
CQUAD4   1169    1       1171    1176    1177    1168
CTRIA3   1170    1       1176    1175    1177
CQUAD4   1171    1       1168    1177    1179    1178
CTRIA3   1172    1       1177    1175    1179
CQUAD4   1173    1       1178    1179    1181    1180
CQUAD4   1174    1       1179    1175    1174    1181
CTRIA3   1175    1       1182    1183    1184
CQUAD4   1176    1       1182    1168    1178    1183
CQUAD4   1177    1       1184    1183    1186    1185
CQUAD4   1178    1       1183    1178    1180    1186
CQUAD4   1179    1       1168    1182    1188    1187
CTRIA3   1180    1       1182    1184    1188
CQUAD4   1181    1       1187    1188    1190    1189
CQUAD4   1182    1       1188    1184    1185    1190
CTRIA3   1183    1       1191    1192    1193
CQUAD4   1184    1       1191    1168    1187    1192
CQUAD4   1185    1       1193    1192    1194    1023
CQUAD4   1186    1       1192    1187    1189    1194
CQUAD4   1187    1       1023    1024    1195    1193
CQUAD4   1188    1       1024    1018    1167    1195
CTRIA3   1189    1       1193    1195    1191
CQUAD4   1190    1       1195    1167    1168    1191
CQUAD4   1191    1       1050    1051    1197    1199
CQUAD4   1192    1       1051    1023    1196    1197
CQUAD4   1193    1       1199    1197    1198    1200
CTRIA3   1194    1       1197    1196    1198
CQUAD4   1195    1       1023    1194    1202    1196
CQUAD4   1196    1       1194    1189    1201    1202
CTRIA3   1197    1       1196    1202    1198
CQUAD4   1198    1       1202    1201    1200    1198
CQUAD4   1199    1       1189    1190    1204    1201
CQUAD4   1200    1       1190    1185    1203    1204
CQUAD4   1201    1       1201    1204    1205    1200
CTRIA3   1202    1       1204    1203    1205
CQUAD4   1203    1       1200    1205    1207    1206
CTRIA3   1204    1       1205    1203    1207
CQUAD4   1205    1       1206    1207    1209    1208
CQUAD4   1206    1       1207    1203    1185    1209
CTRIA3   1207    1       1210    1211    1212
CQUAD4   1208    1       1210    1200    1206    1211
CQUAD4   1209    1       1212    1211    1214    1213
CQUAD4   1210    1       1211    1206    1208    1214
CQUAD4   1211    1       1200    1210    1216    1215
CTRIA3   1212    1       1210    1212    1216
CQUAD4   1213    1       1215    1216    1218    1217
CQUAD4   1214    1       1216    1212    1213    1218
CTRIA3   1215    1       1219    1220    1221
CQUAD4   1216    1       1219    1200    1215    1220
CQUAD4   1217    1       1221    1220    1222    1055
CQUAD4   1218    1       1220    1215    1217    1222
CQUAD4   1219    1       1055    1056    1223    1221
CQUAD4   1220    1       1056    1050    1199    1223
CTRIA3   1221    1       1221    1223    1219
CQUAD4   1222    1       1223    1199    1200    1219
CQUAD4   1223    1       1082    1083    1225    1227
CQUAD4   1224    1       1083    1055    1224    1225
CQUAD4   1225    1       1227    1225    1226    1228
CTRIA3   1226    1       1225    1224    1226
CQUAD4   1227    1       1055    1222    1230    1224
CQUAD4   1228    1       1222    1217    1229    1230
CTRIA3   1229    1       1224    1230    1226
CQUAD4   1230    1       1230    1229    1228    1226
CQUAD4   1231    1       1217    1218    1232    1229
CQUAD4   1232    1       1218    1213    1231    1232
CQUAD4   1233    1       1229    1232    1233    1228
CTRIA3   1234    1       1232    1231    1233
CQUAD4   1235    1       1228    1233    1235    1234
CTRIA3   1236    1       1233    1231    1235
CQUAD4   1237    1       1234    1235    1237    1236
CQUAD4   1238    1       1235    1231    1213    1237
CTRIA3   1239    1       1238    1239    1240
CQUAD4   1240    1       1238    1228    1234    1239
CQUAD4   1241    1       1240    1239    1242    1241
CQUAD4   1242    1       1239    1234    1236    1242
CQUAD4   1243    1       1228    1238    1244    1243
CTRIA3   1244    1       1238    1240    1244
CQUAD4   1245    1       1243    1244    1246    1245
CQUAD4   1246    1       1244    1240    1241    1246
CTRIA3   1247    1       1247    1248    1249
CQUAD4   1248    1       1247    1228    1243    1248
CQUAD4   1249    1       1249    1248    1250    1087
CQUAD4   1250    1       1248    1243    1245    1250
CQUAD4   1251    1       1087    1088    1251    1249
CQUAD4   1252    1       1088    1082    1227    1251
CTRIA3   1253    1       1249    1251    1247
CQUAD4   1254    1       1251    1227    1228    1247
CQUAD4   1255    1       1114    1115    1253    1255
CQUAD4   1256    1       1115    1087    1252    1253
CQUAD4   1257    1       1255    1253    1254    1256
CTRIA3   1258    1       1253    1252    1254
CQUAD4   1259    1       1087    1250    1258    1252
CQUAD4   1260    1       1250    1245    1257    1258
CTRIA3   1261    1       1252    1258    1254
CQUAD4   1262    1       1258    1257    1256    1254
CQUAD4   1263    1       1245    1246    1260    1257
CQUAD4   1264    1       1246    1241    1259    1260
CQUAD4   1265    1       1257    1260    1261    1256
CTRIA3   1266    1       1260    1259    1261
CQUAD4   1267    1       1256    1261    1263    1262
CTRIA3   1268    1       1261    1259    1263
CQUAD4   1269    1       1262    1263    1265    1264
CQUAD4   1270    1       1263    1259    1241    1265
CTRIA3   1271    1       1266    1267    1268
CQUAD4   1272    1       1266    1256    1262    1267
CQUAD4   1273    1       1268    1267    1270    1269
CQUAD4   1274    1       1267    1262    1264    1270
CQUAD4   1275    1       1256    1266    1272    1271
CTRIA3   1276    1       1266    1268    1272
CQUAD4   1277    1       1271    1272    1274    1273
CQUAD4   1278    1       1272    1268    1269    1274
CTRIA3   1279    1       1275    1276    1277
CQUAD4   1280    1       1275    1256    1271    1276
CQUAD4   1281    1       1277    1276    1278    1119
CQUAD4   1282    1       1276    1271    1273    1278
CQUAD4   1283    1       1119    1120    1279    1277
CQUAD4   1284    1       1120    1114    1255    1279
CTRIA3   1285    1       1277    1279    1275
CQUAD4   1286    1       1279    1255    1256    1275
CQUAD4   1287    1       1146    1147    1281    1283
CQUAD4   1288    1       1147    1119    1280    1281
CQUAD4   1289    1       1283    1281    1282    1284
CTRIA3   1290    1       1281    1280    1282
CQUAD4   1291    1       1119    1278    1286    1280
CQUAD4   1292    1       1278    1273    1285    1286
CTRIA3   1293    1       1280    1286    1282
CQUAD4   1294    1       1286    1285    1284    1282
CQUAD4   1295    1       1273    1274    1288    1285
CQUAD4   1296    1       1274    1269    1287    1288
CQUAD4   1297    1       1285    1288    1289    1284
CTRIA3   1298    1       1288    1287    1289
CQUAD4   1299    1       1284    1289    1291    1290
CTRIA3   1300    1       1289    1287    1291
CQUAD4   1301    1       1290    1291    1293    1292
CQUAD4   1302    1       1291    1287    1269    1293
CTRIA3   1303    1       1294    1295    1296
CQUAD4   1304    1       1294    1284    1290    1295
CQUAD4   1305    1       1296    1295    1298    1297
CQUAD4   1306    1       1295    1290    1292    1298
CQUAD4   1307    1       1284    1294    1300    1299
CTRIA3   1308    1       1294    1296    1300
CQUAD4   1309    1       1299    1300    1302    1301
CQUAD4   1310    1       1300    1296    1297    1302
CTRIA3   1311    1       1303    1304    1305
CQUAD4   1312    1       1303    1284    1299    1304
CQUAD4   1313    1       1305    1304    1306    1151
CQUAD4   1314    1       1304    1299    1301    1306
CQUAD4   1315    1       1151    1152    1307    1305
CQUAD4   1316    1       1152    1146    1283    1307
CTRIA3   1317    1       1305    1307    1303
CQUAD4   1318    1       1307    1283    1284    1303
CQUAD4   1319    1       1180    1181    1309    1311
CQUAD4   1320    1       1181    1174    1308    1309
CQUAD4   1321    1       1311    1309    1310    1312
CTRIA3   1322    1       1309    1308    1310
CQUAD4   1323    1       1174    1313    1316    1308
CQUAD4   1324    1       1313    1314    1315    1316
CTRIA3   1325    1       1308    1316    1310
CQUAD4   1326    1       1316    1315    1312    1310
CQUAD4   1327    1       1314    1317    1320    1315
CQUAD4   1328    1       1317    1318    1319    1320
CQUAD4   1329    1       1315    1320    1321    1312
CTRIA3   1330    1       1320    1319    1321
CQUAD4   1331    1       1312    1321    1323    1322
CTRIA3   1332    1       1321    1319    1323
CQUAD4   1333    1       1322    1323    1325    1324
CQUAD4   1334    1       1323    1319    1318    1325
CTRIA3   1335    1       1326    1327    1328
CQUAD4   1336    1       1326    1312    1322    1327
CQUAD4   1337    1       1328    1327    1330    1329
CQUAD4   1338    1       1327    1322    1324    1330
CQUAD4   1339    1       1312    1326    1332    1331
CTRIA3   1340    1       1326    1328    1332
CQUAD4   1341    1       1331    1332    1334    1333
CQUAD4   1342    1       1332    1328    1329    1334
CTRIA3   1343    1       1335    1336    1337
CQUAD4   1344    1       1335    1312    1331    1336
CQUAD4   1345    1       1337    1336    1338    1185
CQUAD4   1346    1       1336    1331    1333    1338
CQUAD4   1347    1       1185    1186    1339    1337
CQUAD4   1348    1       1186    1180    1311    1339
CTRIA3   1349    1       1337    1339    1335
CQUAD4   1350    1       1339    1311    1312    1335
CQUAD4   1351    1       1208    1209    1341    1343
CQUAD4   1352    1       1209    1185    1340    1341
CQUAD4   1353    1       1343    1341    1342    1344
CTRIA3   1354    1       1341    1340    1342
CQUAD4   1355    1       1185    1338    1346    1340
CQUAD4   1356    1       1338    1333    1345    1346
CTRIA3   1357    1       1340    1346    1342
CQUAD4   1358    1       1346    1345    1344    1342
CQUAD4   1359    1       1333    1334    1348    1345
CQUAD4   1360    1       1334    1329    1347    1348
CQUAD4   1361    1       1345    1348    1349    1344
CTRIA3   1362    1       1348    1347    1349
CQUAD4   1363    1       1344    1349    1351    1350
CTRIA3   1364    1       1349    1347    1351
CQUAD4   1365    1       1350    1351    1353    1352
CQUAD4   1366    1       1351    1347    1329    1353
CTRIA3   1367    1       1354    1355    1356
CQUAD4   1368    1       1354    1344    1350    1355
CQUAD4   1369    1       1356    1355    1358    1357
CQUAD4   1370    1       1355    1350    1352    1358
CQUAD4   1371    1       1344    1354    1360    1359
CTRIA3   1372    1       1354    1356    1360
CQUAD4   1373    1       1359    1360    1362    1361
CQUAD4   1374    1       1360    1356    1357    1362
CTRIA3   1375    1       1363    1364    1365
CQUAD4   1376    1       1363    1344    1359    1364
CQUAD4   1377    1       1365    1364    1366    1213
CQUAD4   1378    1       1364    1359    1361    1366
CQUAD4   1379    1       1213    1214    1367    1365
CQUAD4   1380    1       1214    1208    1343    1367
CTRIA3   1381    1       1365    1367    1363
CQUAD4   1382    1       1367    1343    1344    1363
CQUAD4   1383    1       1236    1237    1369    1371
CQUAD4   1384    1       1237    1213    1368    1369
CQUAD4   1385    1       1371    1369    1370    1372
CTRIA3   1386    1       1369    1368    1370
CQUAD4   1387    1       1213    1366    1374    1368
CQUAD4   1388    1       1366    1361    1373    1374
CTRIA3   1389    1       1368    1374    1370
CQUAD4   1390    1       1374    1373    1372    1370
CQUAD4   1391    1       1361    1362    1376    1373
CQUAD4   1392    1       1362    1357    1375    1376
CQUAD4   1393    1       1373    1376    1377    1372
CTRIA3   1394    1       1376    1375    1377
CQUAD4   1395    1       1372    1377    1379    1378
CTRIA3   1396    1       1377    1375    1379
CQUAD4   1397    1       1378    1379    1381    1380
CQUAD4   1398    1       1379    1375    1357    1381
CTRIA3   1399    1       1382    1383    1384
CQUAD4   1400    1       1382    1372    1378    1383
CQUAD4   1401    1       1384    1383    1386    1385
CQUAD4   1402    1       1383    1378    1380    1386
CQUAD4   1403    1       1372    1382    1388    1387
CTRIA3   1404    1       1382    1384    1388
CQUAD4   1405    1       1387    1388    1390    1389
CQUAD4   1406    1       1388    1384    1385    1390
CTRIA3   1407    1       1391    1392    1393
CQUAD4   1408    1       1391    1372    1387    1392
CQUAD4   1409    1       1393    1392    1394    1241
CQUAD4   1410    1       1392    1387    1389    1394
CQUAD4   1411    1       1241    1242    1395    1393
CQUAD4   1412    1       1242    1236    1371    1395
CTRIA3   1413    1       1393    1395    1391
CQUAD4   1414    1       1395    1371    1372    1391
CQUAD4   1415    1       1264    1265    1397    1399
CQUAD4   1416    1       1265    1241    1396    1397
CQUAD4   1417    1       1399    1397    1398    1400
CTRIA3   1418    1       1397    1396    1398
CQUAD4   1419    1       1241    1394    1402    1396
CQUAD4   1420    1       1394    1389    1401    1402
CTRIA3   1421    1       1396    1402    1398
CQUAD4   1422    1       1402    1401    1400    1398
CQUAD4   1423    1       1389    1390    1404    1401
CQUAD4   1424    1       1390    1385    1403    1404
CQUAD4   1425    1       1401    1404    1405    1400
CTRIA3   1426    1       1404    1403    1405
CQUAD4   1427    1       1400    1405    1407    1406
CTRIA3   1428    1       1405    1403    1407
CQUAD4   1429    1       1406    1407    1409    1408
CQUAD4   1430    1       1407    1403    1385    1409
CTRIA3   1431    1       1410    1411    1412
CQUAD4   1432    1       1410    1400    1406    1411
CQUAD4   1433    1       1412    1411    1414    1413
CQUAD4   1434    1       1411    1406    1408    1414
CQUAD4   1435    1       1400    1410    1416    1415
CTRIA3   1436    1       1410    1412    1416
CQUAD4   1437    1       1415    1416    1418    1417
CQUAD4   1438    1       1416    1412    1413    1418
CTRIA3   1439    1       1419    1420    1421
CQUAD4   1440    1       1419    1400    1415    1420
CQUAD4   1441    1       1421    1420    1422    1269
CQUAD4   1442    1       1420    1415    1417    1422
CQUAD4   1443    1       1269    1270    1423    1421
CQUAD4   1444    1       1270    1264    1399    1423
CTRIA3   1445    1       1421    1423    1419
CQUAD4   1446    1       1423    1399    1400    1419
CQUAD4   1447    1       1292    1293    1425    1427
CQUAD4   1448    1       1293    1269    1424    1425
CQUAD4   1449    1       1427    1425    1426    1428
CTRIA3   1450    1       1425    1424    1426
CQUAD4   1451    1       1269    1422    1430    1424
CQUAD4   1452    1       1422    1417    1429    1430
CTRIA3   1453    1       1424    1430    1426
CQUAD4   1454    1       1430    1429    1428    1426
CQUAD4   1455    1       1417    1418    1432    1429
CQUAD4   1456    1       1418    1413    1431    1432
CQUAD4   1457    1       1429    1432    1433    1428
CTRIA3   1458    1       1432    1431    1433
CQUAD4   1459    1       1428    1433    1435    1434
CTRIA3   1460    1       1433    1431    1435
CQUAD4   1461    1       1434    1435    1437    1436
CQUAD4   1462    1       1435    1431    1413    1437
CTRIA3   1463    1       1438    1439    1440
CQUAD4   1464    1       1438    1428    1434    1439
CQUAD4   1465    1       1440    1439    1442    1441
CQUAD4   1466    1       1439    1434    1436    1442
CQUAD4   1467    1       1428    1438    1444    1443
CTRIA3   1468    1       1438    1440    1444
CQUAD4   1469    1       1443    1444    1446    1445
CQUAD4   1470    1       1444    1440    1441    1446
CTRIA3   1471    1       1447    1448    1449
CQUAD4   1472    1       1447    1428    1443    1448
CQUAD4   1473    1       1449    1448    1450    1297
CQUAD4   1474    1       1448    1443    1445    1450
CQUAD4   1475    1       1297    1298    1451    1449
CQUAD4   1476    1       1298    1292    1427    1451
CTRIA3   1477    1       1449    1451    1447
CQUAD4   1478    1       1451    1427    1428    1447
CQUAD4   1479    1       1324    1325    1453    1455
CQUAD4   1480    1       1325    1318    1452    1453
CQUAD4   1481    1       1455    1453    1454    1456
CTRIA3   1482    1       1453    1452    1454
CQUAD4   1483    1       1318    1457    1460    1452
CQUAD4   1484    1       1457    1458    1459    1460
CTRIA3   1485    1       1452    1460    1454
CQUAD4   1486    1       1460    1459    1456    1454
CQUAD4   1487    1       1458    1461    1464    1459
CQUAD4   1488    1       1461    1462    1463    1464
CQUAD4   1489    1       1459    1464    1465    1456
CTRIA3   1490    1       1464    1463    1465
CQUAD4   1491    1       1456    1465    1467    1466
CTRIA3   1492    1       1465    1463    1467
CQUAD4   1493    1       1466    1467    1469    1468
CQUAD4   1494    1       1467    1463    1462    1469
CTRIA3   1495    1       1470    1471    1472
CQUAD4   1496    1       1470    1456    1466    1471
CQUAD4   1497    1       1472    1471    1474    1473
CQUAD4   1498    1       1471    1466    1468    1474
CQUAD4   1499    1       1456    1470    1476    1475
CTRIA3   1500    1       1470    1472    1476
CQUAD4   1501    1       1475    1476    1478    1477
CQUAD4   1502    1       1476    1472    1473    1478
CTRIA3   1503    1       1479    1480    1481
CQUAD4   1504    1       1479    1456    1475    1480
CQUAD4   1505    1       1481    1480    1482    1329
CQUAD4   1506    1       1480    1475    1477    1482
CQUAD4   1507    1       1329    1330    1483    1481
CQUAD4   1508    1       1330    1324    1455    1483
CTRIA3   1509    1       1481    1483    1479
CQUAD4   1510    1       1483    1455    1456    1479
CQUAD4   1511    1       1352    1353    1485    1487
CQUAD4   1512    1       1353    1329    1484    1485
CQUAD4   1513    1       1487    1485    1486    1488
CTRIA3   1514    1       1485    1484    1486
CQUAD4   1515    1       1329    1482    1490    1484
CQUAD4   1516    1       1482    1477    1489    1490
CTRIA3   1517    1       1484    1490    1486
CQUAD4   1518    1       1490    1489    1488    1486
CQUAD4   1519    1       1477    1478    1492    1489
CQUAD4   1520    1       1478    1473    1491    1492
CQUAD4   1521    1       1489    1492    1493    1488
CTRIA3   1522    1       1492    1491    1493
CQUAD4   1523    1       1488    1493    1495    1494
CTRIA3   1524    1       1493    1491    1495
CQUAD4   1525    1       1494    1495    1497    1496
CQUAD4   1526    1       1495    1491    1473    1497
CTRIA3   1527    1       1498    1499    1500
CQUAD4   1528    1       1498    1488    1494    1499
CQUAD4   1529    1       1500    1499    1502    1501
CQUAD4   1530    1       1499    1494    1496    1502
CQUAD4   1531    1       1488    1498    1504    1503
CTRIA3   1532    1       1498    1500    1504
CQUAD4   1533    1       1503    1504    1506    1505
CQUAD4   1534    1       1504    1500    1501    1506
CTRIA3   1535    1       1507    1508    1509
CQUAD4   1536    1       1507    1488    1503    1508
CQUAD4   1537    1       1509    1508    1510    1357
CQUAD4   1538    1       1508    1503    1505    1510
CQUAD4   1539    1       1357    1358    1511    1509
CQUAD4   1540    1       1358    1352    1487    1511
CTRIA3   1541    1       1509    1511    1507
CQUAD4   1542    1       1511    1487    1488    1507
CQUAD4   1543    1       1380    1381    1513    1515
CQUAD4   1544    1       1381    1357    1512    1513
CQUAD4   1545    1       1515    1513    1514    1516
CTRIA3   1546    1       1513    1512    1514
CQUAD4   1547    1       1357    1510    1518    1512
CQUAD4   1548    1       1510    1505    1517    1518
CTRIA3   1549    1       1512    1518    1514
CQUAD4   1550    1       1518    1517    1516    1514
CQUAD4   1551    1       1505    1506    1520    1517
CQUAD4   1552    1       1506    1501    1519    1520
CQUAD4   1553    1       1517    1520    1521    1516
CTRIA3   1554    1       1520    1519    1521
CQUAD4   1555    1       1516    1521    1523    1522
CTRIA3   1556    1       1521    1519    1523
CQUAD4   1557    1       1522    1523    1525    1524
CQUAD4   1558    1       1523    1519    1501    1525
CTRIA3   1559    1       1526    1527    1528
CQUAD4   1560    1       1526    1516    1522    1527
CQUAD4   1561    1       1528    1527    1530    1529
CQUAD4   1562    1       1527    1522    1524    1530
CQUAD4   1563    1       1516    1526    1532    1531
CTRIA3   1564    1       1526    1528    1532
CQUAD4   1565    1       1531    1532    1534    1533
CQUAD4   1566    1       1532    1528    1529    1534
CTRIA3   1567    1       1535    1536    1537
CQUAD4   1568    1       1535    1516    1531    1536
CQUAD4   1569    1       1537    1536    1538    1385
CQUAD4   1570    1       1536    1531    1533    1538
CQUAD4   1571    1       1385    1386    1539    1537
CQUAD4   1572    1       1386    1380    1515    1539
CTRIA3   1573    1       1537    1539    1535
CQUAD4   1574    1       1539    1515    1516    1535
CQUAD4   1575    1       1408    1409    1541    1543
CQUAD4   1576    1       1409    1385    1540    1541
CQUAD4   1577    1       1543    1541    1542    1544
CTRIA3   1578    1       1541    1540    1542
CQUAD4   1579    1       1385    1538    1546    1540
CQUAD4   1580    1       1538    1533    1545    1546
CTRIA3   1581    1       1540    1546    1542
CQUAD4   1582    1       1546    1545    1544    1542
CQUAD4   1583    1       1533    1534    1548    1545
CQUAD4   1584    1       1534    1529    1547    1548
CQUAD4   1585    1       1545    1548    1549    1544
CTRIA3   1586    1       1548    1547    1549
CQUAD4   1587    1       1544    1549    1551    1550
CTRIA3   1588    1       1549    1547    1551
CQUAD4   1589    1       1550    1551    1553    1552
CQUAD4   1590    1       1551    1547    1529    1553
CTRIA3   1591    1       1554    1555    1556
CQUAD4   1592    1       1554    1544    1550    1555
CQUAD4   1593    1       1556    1555    1558    1557
CQUAD4   1594    1       1555    1550    1552    1558
CQUAD4   1595    1       1544    1554    1560    1559
CTRIA3   1596    1       1554    1556    1560
CQUAD4   1597    1       1559    1560    1562    1561
CQUAD4   1598    1       1560    1556    1557    1562
CTRIA3   1599    1       1563    1564    1565
CQUAD4   1600    1       1563    1544    1559    1564
CQUAD4   1601    1       1565    1564    1566    1413
CQUAD4   1602    1       1564    1559    1561    1566
CQUAD4   1603    1       1413    1414    1567    1565
CQUAD4   1604    1       1414    1408    1543    1567
CTRIA3   1605    1       1565    1567    1563
CQUAD4   1606    1       1567    1543    1544    1563
CQUAD4   1607    1       1436    1437    1569    1571
CQUAD4   1608    1       1437    1413    1568    1569
CQUAD4   1609    1       1571    1569    1570    1572
CTRIA3   1610    1       1569    1568    1570
CQUAD4   1611    1       1413    1566    1574    1568
CQUAD4   1612    1       1566    1561    1573    1574
CTRIA3   1613    1       1568    1574    1570
CQUAD4   1614    1       1574    1573    1572    1570
CQUAD4   1615    1       1561    1562    1576    1573
CQUAD4   1616    1       1562    1557    1575    1576
CQUAD4   1617    1       1573    1576    1577    1572
CTRIA3   1618    1       1576    1575    1577
CQUAD4   1619    1       1572    1577    1579    1578
CTRIA3   1620    1       1577    1575    1579
CQUAD4   1621    1       1578    1579    1581    1580
CQUAD4   1622    1       1579    1575    1557    1581
CTRIA3   1623    1       1582    1583    1584
CQUAD4   1624    1       1582    1572    1578    1583
CQUAD4   1625    1       1584    1583    1586    1585
CQUAD4   1626    1       1583    1578    1580    1586
CQUAD4   1627    1       1572    1582    1588    1587
CTRIA3   1628    1       1582    1584    1588
CQUAD4   1629    1       1587    1588    1590    1589
CQUAD4   1630    1       1588    1584    1585    1590
CTRIA3   1631    1       1591    1592    1593
CQUAD4   1632    1       1591    1572    1587    1592
CQUAD4   1633    1       1593    1592    1594    1441
CQUAD4   1634    1       1592    1587    1589    1594
CQUAD4   1635    1       1441    1442    1595    1593
CQUAD4   1636    1       1442    1436    1571    1595
CTRIA3   1637    1       1593    1595    1591
CQUAD4   1638    1       1595    1571    1572    1591
CQUAD4   1639    1       1468    1469    1597    1599
CQUAD4   1640    1       1469    1462    1596    1597
CQUAD4   1641    1       1599    1597    1598    1600
CTRIA3   1642    1       1597    1596    1598
CQUAD4   1643    1       1462    1601    1604    1596
CQUAD4   1644    1       1601    1602    1603    1604
CTRIA3   1645    1       1596    1604    1598
CQUAD4   1646    1       1604    1603    1600    1598
CQUAD4   1647    1       1602    1605    1608    1603
CQUAD4   1648    1       1605    1606    1607    1608
CQUAD4   1649    1       1603    1608    1609    1600
CTRIA3   1650    1       1608    1607    1609
CQUAD4   1651    1       1600    1609    1611    1610
CTRIA3   1652    1       1609    1607    1611
CQUAD4   1653    1       1610    1611    1613    1612
CQUAD4   1654    1       1611    1607    1606    1613
CTRIA3   1655    1       1614    1615    1616
CQUAD4   1656    1       1614    1600    1610    1615
CQUAD4   1657    1       1616    1615    1618    1617
CQUAD4   1658    1       1615    1610    1612    1618
CQUAD4   1659    1       1600    1614    1620    1619
CTRIA3   1660    1       1614    1616    1620
CQUAD4   1661    1       1619    1620    1622    1621
CQUAD4   1662    1       1620    1616    1617    1622
CTRIA3   1663    1       1623    1624    1625
CQUAD4   1664    1       1623    1600    1619    1624
CQUAD4   1665    1       1625    1624    1626    1473
CQUAD4   1666    1       1624    1619    1621    1626
CQUAD4   1667    1       1473    1474    1627    1625
CQUAD4   1668    1       1474    1468    1599    1627
CTRIA3   1669    1       1625    1627    1623
CQUAD4   1670    1       1627    1599    1600    1623
CQUAD4   1671    1       1496    1497    1629    1631
CQUAD4   1672    1       1497    1473    1628    1629
CQUAD4   1673    1       1631    1629    1630    1632
CTRIA3   1674    1       1629    1628    1630
CQUAD4   1675    1       1473    1626    1634    1628
CQUAD4   1676    1       1626    1621    1633    1634
CTRIA3   1677    1       1628    1634    1630
CQUAD4   1678    1       1634    1633    1632    1630
CQUAD4   1679    1       1621    1622    1636    1633
CQUAD4   1680    1       1622    1617    1635    1636
CQUAD4   1681    1       1633    1636    1637    1632
CTRIA3   1682    1       1636    1635    1637
CQUAD4   1683    1       1632    1637    1639    1638
CTRIA3   1684    1       1637    1635    1639
CQUAD4   1685    1       1638    1639    1641    1640
CQUAD4   1686    1       1639    1635    1617    1641
CTRIA3   1687    1       1642    1643    1644
CQUAD4   1688    1       1642    1632    1638    1643
CQUAD4   1689    1       1644    1643    1646    1645
CQUAD4   1690    1       1643    1638    1640    1646
CQUAD4   1691    1       1632    1642    1648    1647
CTRIA3   1692    1       1642    1644    1648
CQUAD4   1693    1       1647    1648    1650    1649
CQUAD4   1694    1       1648    1644    1645    1650
CTRIA3   1695    1       1651    1652    1653
CQUAD4   1696    1       1651    1632    1647    1652
CQUAD4   1697    1       1653    1652    1654    1501
CQUAD4   1698    1       1652    1647    1649    1654
CQUAD4   1699    1       1501    1502    1655    1653
CQUAD4   1700    1       1502    1496    1631    1655
CTRIA3   1701    1       1653    1655    1651
CQUAD4   1702    1       1655    1631    1632    1651
CQUAD4   1703    1       1524    1525    1657    1659
CQUAD4   1704    1       1525    1501    1656    1657
CQUAD4   1705    1       1659    1657    1658    1660
CTRIA3   1706    1       1657    1656    1658
CQUAD4   1707    1       1501    1654    1662    1656
CQUAD4   1708    1       1654    1649    1661    1662
CTRIA3   1709    1       1656    1662    1658
CQUAD4   1710    1       1662    1661    1660    1658
CQUAD4   1711    1       1649    1650    1664    1661
CQUAD4   1712    1       1650    1645    1663    1664
CQUAD4   1713    1       1661    1664    1665    1660
CTRIA3   1714    1       1664    1663    1665
CQUAD4   1715    1       1660    1665    1667    1666
CTRIA3   1716    1       1665    1663    1667
CQUAD4   1717    1       1666    1667    1669    1668
CQUAD4   1718    1       1667    1663    1645    1669
CTRIA3   1719    1       1670    1671    1672
CQUAD4   1720    1       1670    1660    1666    1671
CQUAD4   1721    1       1672    1671    1674    1673
CQUAD4   1722    1       1671    1666    1668    1674
CQUAD4   1723    1       1660    1670    1676    1675
CTRIA3   1724    1       1670    1672    1676
CQUAD4   1725    1       1675    1676    1678    1677
CQUAD4   1726    1       1676    1672    1673    1678
CTRIA3   1727    1       1679    1680    1681
CQUAD4   1728    1       1679    1660    1675    1680
CQUAD4   1729    1       1681    1680    1682    1529
CQUAD4   1730    1       1680    1675    1677    1682
CQUAD4   1731    1       1529    1530    1683    1681
CQUAD4   1732    1       1530    1524    1659    1683
CTRIA3   1733    1       1681    1683    1679
CQUAD4   1734    1       1683    1659    1660    1679
CQUAD4   1735    1       1552    1553    1685    1687
CQUAD4   1736    1       1553    1529    1684    1685
CQUAD4   1737    1       1687    1685    1686    1688
CTRIA3   1738    1       1685    1684    1686
CQUAD4   1739    1       1529    1682    1690    1684
CQUAD4   1740    1       1682    1677    1689    1690
CTRIA3   1741    1       1684    1690    1686
CQUAD4   1742    1       1690    1689    1688    1686
CQUAD4   1743    1       1677    1678    1692    1689
CQUAD4   1744    1       1678    1673    1691    1692
CQUAD4   1745    1       1689    1692    1693    1688
CTRIA3   1746    1       1692    1691    1693
CQUAD4   1747    1       1688    1693    1695    1694
CTRIA3   1748    1       1693    1691    1695
CQUAD4   1749    1       1694    1695    1697    1696
CQUAD4   1750    1       1695    1691    1673    1697
CTRIA3   1751    1       1698    1699    1700
CQUAD4   1752    1       1698    1688    1694    1699
CQUAD4   1753    1       1700    1699    1702    1701
CQUAD4   1754    1       1699    1694    1696    1702
CQUAD4   1755    1       1688    1698    1704    1703
CTRIA3   1756    1       1698    1700    1704
CQUAD4   1757    1       1703    1704    1706    1705
CQUAD4   1758    1       1704    1700    1701    1706
CTRIA3   1759    1       1707    1708    1709
CQUAD4   1760    1       1707    1688    1703    1708
CQUAD4   1761    1       1709    1708    1710    1557
CQUAD4   1762    1       1708    1703    1705    1710
CQUAD4   1763    1       1557    1558    1711    1709
CQUAD4   1764    1       1558    1552    1687    1711
CTRIA3   1765    1       1709    1711    1707
CQUAD4   1766    1       1711    1687    1688    1707
CQUAD4   1767    1       1580    1581    1713    1715
CQUAD4   1768    1       1581    1557    1712    1713
CQUAD4   1769    1       1715    1713    1714    1716
CTRIA3   1770    1       1713    1712    1714
CQUAD4   1771    1       1557    1710    1718    1712
CQUAD4   1772    1       1710    1705    1717    1718
CTRIA3   1773    1       1712    1718    1714
CQUAD4   1774    1       1718    1717    1716    1714
CQUAD4   1775    1       1705    1706    1720    1717
CQUAD4   1776    1       1706    1701    1719    1720
CQUAD4   1777    1       1717    1720    1721    1716
CTRIA3   1778    1       1720    1719    1721
CQUAD4   1779    1       1716    1721    1723    1722
CTRIA3   1780    1       1721    1719    1723
CQUAD4   1781    1       1722    1723    1725    1724
CQUAD4   1782    1       1723    1719    1701    1725
CTRIA3   1783    1       1726    1727    1728
CQUAD4   1784    1       1726    1716    1722    1727
CQUAD4   1785    1       1728    1727    1730    1729
CQUAD4   1786    1       1727    1722    1724    1730
CQUAD4   1787    1       1716    1726    1732    1731
CTRIA3   1788    1       1726    1728    1732
CQUAD4   1789    1       1731    1732    1734    1733
CQUAD4   1790    1       1732    1728    1729    1734
CTRIA3   1791    1       1735    1736    1737
CQUAD4   1792    1       1735    1716    1731    1736
CQUAD4   1793    1       1737    1736    1738    1585
CQUAD4   1794    1       1736    1731    1733    1738
CQUAD4   1795    1       1585    1586    1739    1737
CQUAD4   1796    1       1586    1580    1715    1739
CTRIA3   1797    1       1737    1739    1735
CQUAD4   1798    1       1739    1715    1716    1735
CQUAD4   4659    1       2596    1000    1003    1005
$ Elements and Element Properties for region : 1D_Al7075_Rig_int
PBARL    2       1               BAR
*        9.2600001-4     .03
*
$ Pset: "1D_Al7075_Rig_int" will be imported as: "pbarl.2"
CBAR     1879    2       2596    1005    0.      0.      1.
                         0.      0.      -.01525 0.      0.      -.01525
CBAR     1880    2       1005    1006    0.      0.      1.
                         0.      0.      -.01525 0.      0.      -.01525
CBAR     1881    2       1006    1016    0.      0.      1.
                         0.      0.      -.01525 0.      0.      -.01525
CBAR     1882    2       1016    1018    0.      0.      1.
                         0.      0.      -.01525 0.      0.      -.01525
CBAR     1883    2       1032    1033    0.      0.      1.
                         0.      0.      -.01525 0.      0.      -.01525
CBAR     1884    2       1033    1027    0.      0.      1.
                         0.      0.      -.01525 0.      0.      -.01525
CBAR     1885    2       1027    1028    0.      0.      1.
                         0.      0.      -.01525 0.      0.      -.01525
CBAR     1886    2       1028    1023    0.      0.      1.
                         0.      0.      -.01525 0.      0.      -.01525
CBAR     1887    2       1008    1009    0.      0.      1.
                         0.      0.      -.01525 0.      0.      -.01525
CBAR     1888    2       1009    1006    0.      0.      1.
                         0.      0.      -.01525 0.      0.      -.01525
CBAR     1889    2       1006    1025    0.      0.      1.
                         0.      0.      -.01525 0.      0.      -.01525
CBAR     1890    2       1025    1027    0.      0.      1.
                         0.      0.      -.01525 0.      0.      -.01525
CBAR     1891    2       1012    1019    0.      0.      1.
                         0.      0.      -.01525 0.      0.      -.01525
CBAR     1892    2       1019    1018    0.      0.      1.
                         0.      0.      -.01525 0.      0.      -.01525
CBAR     1893    2       1018    1024    0.      0.      1.
                         0.      0.      -.01525 0.      0.      -.01525
CBAR     1894    2       1024    1023    0.      0.      1.
                         0.      0.      -.01525 0.      0.      -.01525
CBAR     1895    2       1001    1002    0.      0.      1.
                         0.      0.      -.01525 0.      0.      -.01525
CBAR     1896    2       1002    1004    0.      0.      1.
                         0.      0.      -.01525 0.      0.      -.01525
CBAR     1897    2       1004    1006    0.      0.      1.
                         0.      0.      -.01525 0.      0.      -.01525
CBAR     1898    2       1006    1020    0.      0.      1.
                         0.      0.      -.01525 0.      0.      -.01525
$ ... 1280 like lines cut
$ Elements and Element Properties for region : 1D_Al7075_Rig_out
PBARL    3       1               BAR
         .001    .015
$ Pset: "1D_Al7075_Rig_out" will be imported as: "pbarl.3"
CBAR     1799    3       1001    1007    0.      0.      1.
                         0.      0.      -.00775 0.      0.      -.00775
CBAR     1800    3       1007    1008    0.      0.      1.
                         0.      0.      -.00775 0.      0.      -.00775
CBAR     1801    3       1008    1011    0.      0.      1.
                         0.      0.      -.00775 0.      0.      -.00775
CBAR     1802    3       1011    1012    0.      0.      1.
                         0.      0.      -.00775 0.      0.      -.00775
CBAR     1803    3       1012    1169    0.      0.      1.
                         0.      0.      -.00775 0.      0.      -.00775
CBAR     1804    3       1169    1170    0.      0.      1.
                         0.      0.      -.00775 0.      0.      -.00775
CBAR     1805    3       1170    1173    0.      0.      1.
                         0.      0.      -.00775 0.      0.      -.00775
CBAR     1806    3       1173    1174    0.      0.      1.
                         0.      0.      -.00775 0.      0.      -.00775
CBAR     1807    3       1174    1313    0.      0.      1.
                         0.      0.      -.00775 0.      0.      -.00775
CBAR     1808    3       1313    1314    0.      0.      1.
                         0.      0.      -.00775 0.      0.      -.00775
CBAR     1809    3       1314    1317    0.      0.      1.
                         0.      0.      -.00775 0.      0.      -.00775
CBAR     1810    3       1317    1318    0.      0.      1.
                         0.      0.      -.00775 0.      0.      -.00775
CBAR     1811    3       1318    1457    0.      0.      1.
                         0.      0.      -.00775 0.      0.      -.00775
CBAR     1812    3       1457    1458    0.      0.      1.
                         0.      0.      -.00775 0.      0.      -.00775
CBAR     1813    3       1458    1461    0.      0.      1.
                         0.      0.      -.00775 0.      0.      -.00775
CBAR     1814    3       1461    1462    0.      0.      1.
                         0.      0.      -.00775 0.      0.      -.00775
CBAR     1815    3       1462    1601    0.      0.      1.
                         0.      0.      -.00775 0.      0.      -.00775
CBAR     1816    3       1601    1602    0.      0.      1.
                         0.      0.      -.00775 0.      0.      -.00775
CBAR     1817    3       1602    1605    0.      0.      1.
                         0.      0.      -.00775 0.      0.      -.00775
CBAR     1818    3       1605    1606    0.      0.      1.
                         0.      0.      -.00775 0.      0.      -.00775
$ ... 120 like lines cut
$ Elements and Element Properties for region : Mass_A_11kg
CONM2    4000    4000            11.
$ Elements and Element Properties for region : 1D_CBUSH_IF
PBUSH    4       K       1.+9    1.+9    1.+9    100.    1.+7    1.+7
$ Pset: "1D_CBUSH_IF" will be imported as: "pbush.4"
CBUSH    1       4       1       1023    0.      1.      0.
CBUSH    2       4       2       1042    0.      1.      0.
CBUSH    3       4       3       1106    0.      1.      0.
CBUSH    4       4       4       1119    0.      1.      0.
CBUSH    5       4       5       1168    0.      1.      0.
CBUSH    6       4       6       1284    0.      1.      0.
CBUSH    7       4       7       1456    0.      1.      0.
CBUSH    8       4       8       1473    0.      1.      0.
CBUSH    9       4       9       1557    0.      1.      0.
CBUSH    10      4       10      1572    0.      1.      0.
CBUSH    11      4       11      1632    0.      1.      0.
CBUSH    12      4       12      1688    0.      1.      0.
$ Referenced Material Records
$ Material Record : Al_7075_T6
$ Description of Material : Date: 22-Apr-21           Time: 17:54:51
MAT1*    1               7.0999998+10                    .33
*        2800.           2.2-5           20.
$ Multipoint Constraints of the Entire Model
RBE2*    4001            4000            123456          1200
*        1256            1488            1544           2.200000017183-5
$ Nodes of the Entire Model
GRID*    1                              -.15000000596046-.15000000596046
*        -.02
GRID*    2                              -.20000000298023-.10000000149012
*        -.02
GRID*    3                              -.20000000298023.100000008940697
*        -.02
GRID*    4                              -.15000000596046.150000005960464
*        -.02
GRID*    5                              -.10000000149012-.20000000298023
*        -.02
GRID*    6                              -.10000000149012.200000002980232
*        -.02
GRID*    7                              .100000008940697-.20000000298023
*        -.02
GRID*    8                              .150000005960464-.15000000596046
*        -.02
GRID*    9                              .150000005960464.150000005960464
*        -.02
GRID*    10                             .100000008940697.200000002980232
*        -.02
GRID*    11                             .200000002980232-.10000000149012
*        -.02
GRID*    12                             .200000002980232.100000008940697
*        -.02
GRID*    1000                            -.25           -.22499999403954
*        0.
GRID     1001            -.25    -.25    0.
GRID*    1002                           -.23333333432674-.23333333432674
*        0.
GRID*    1003                           -.23125001788139-.21875001490116
*        0.
GRID*    1004                           -.21666666865349-.21666666865349
*        0.
GRID*    1005                           -.22499999403954-.20000000298023
*        0.
GRID*    1006                           -.20000000298023-.20000000298023
*        0.
GRID*    1007                           -.22499999403954 -.25
*        0.
GRID*    1008                           -.20000000298023 -.25
*        0.
GRID*    1009                           -.20000000298023-.22499999403954
*        0.
GRID*    1010                            -.21875        -.23125001788139
*        0.
GRID*    1011                           -.17500001192093 -.25
*        0.
GRID*    1012                           -.15000000596046 -.25
*        0.
GRID*    1013                           -.16666667163372-.23333333432674
*        0.
GRID*    1014                           -.18125000596046-.23125001788139
*        0.
GRID*    1015                           -.18333333730698-.21666666865349
*        0.
GRID*    1016                           -.17500001192093-.20000000298023
*        0.
GRID*    1017                           -.16875000298023-.21875001490116
*        0.
GRID*    1018                           -.15000000596046-.20000000298023
*        0.
GRID*    1019                           -.15000000596046-.22499999403954
*        0.
GRID*    1020                           -.18333333730698-.18333333730698
*        0.
GRID*    1021                           -.16875000298023-.18125000596046
*        0.
$ ... 30 like lines cut
GRID     1037            -.25    -.125   0.
GRID*    1038                           -.23333333432674-.13333332538605
*        0.
GRID*    1039                           -.23125001788139-.11874999850988
*        0.
GRID*    1040                           -.21666666865349-.11666666716337
*        0.
GRID*    1041                           -.22499999403954-.10000000149012
*        0.
GRID*    1042                           -.20000000298023-.10000000149012
*        0.
GRID*    1043                           -.20000000298023 -.125
*        0.
GRID*    1044                            -.21875        -.13124999403954
*        0.
GRID*    1045                           -.16666667163372-.13333332538605
*        0.
GRID*    1046                           -.18125000596046-.13124999403954
*        0.
GRID*    1047                           -.18333333730698-.11666666716337
*        0.
GRID*    1048                           -.17500001192093-.10000000149012
*        0.
GRID*    1049                           -.16875000298023-.11874999850988
*        0.
GRID*    1050                           -.15000000596046-.10000000149012
*        0.
GRID*    1051                           -.15000000596046 -.125
*        0.
GRID*    1052                           -.18333333730698-.08333333581686
*        0.
GRID*    1053                           -.16875000298023-.08125000447035
*        0.
GRID*    1054                           -.16666667163372 -.0666666701436
*        0.
GRID*    1055                           -.15000000596046-.05000000447035
*        0.
GRID*    1056                           -.15000000596046-.07500000298023
*        0.
GRID*    1057                           -.20000000298023-.07500000298023
*        0.
$ ... 20 like lines cut
GRID     1068            -.25    0.      0.
GRID*    1069                            -.25           -.02499999850988
*        0.
GRID*    1070                           -.23333333432674-.03333333134651
*        0.
GRID*    1071                           -.23125001788139-.01874999701977
*        0.
GRID*    1072                           -.21666666865349-.01666666381061
*        0.
GRID*    1073                           -.22499999403954 0.
*        0.
GRID*    1074                           -.20000000298023 0.
*        0.
GRID*    1075                           -.20000000298023-.02499999850988
*        0.
GRID*    1076                            -.21875        -.03125000372529
*        0.
GRID*    1077                           -.16666667163372-.03333333134651
*        0.
GRID*    1078                           -.18125000596046-.03124999813735
*        0.
GRID*    1079                           -.18333333730698-.01666666381061
*        0.
GRID*    1080                           -.17500001192093 0.
*        0.
GRID*    1081                           -.16875000298023-.01875000447035
*        0.
GRID*    1082                           -.15000000596046 0.
*        0.
GRID*    1083                           -.15000000596046-.02499999850988
*        0.
GRID*    1084                           -.18333333730698.016666665673256
*        0.
GRID*    1085                           -.16875000298023.018749998882413
*        0.
GRID*    1086                           -.16666667163372.033333331346512
*        0.
GRID*    1087                           -.15000000596046.049999997019768
*        0.
GRID*    1088                           -.15000000596046.024999998509884
*        0.
$ ... 82 like lines cut
GRID     1130            -.25    .125    0.
GRID*    1131                           -.23125001788139.118750005960464
*        0.
GRID*    1132                            -.25           .200000002980232
*        0.
GRID*    1133                            -.25           .175000011920929
*        0.
GRID*    1134                           -.23333333432674 .16666667163372
*        0.
GRID*    1135                           -.23125001788139.181250005960464
*        0.
GRID*    1136                           -.21666666865349.183333337306976
*        0.
GRID*    1137                           -.22499999403954.200000002980232
*        0.
GRID*    1138                           -.20000000298023.200000002980232
*        0.
GRID*    1139                           -.20000000298023.175000011920929
*        0.
GRID*    1140                            -.21875        .168750017881393
*        0.
GRID*    1141                           -.16666667163372 .16666667163372
*        0.
GRID*    1142                           -.18125000596046.168749988079071
*        0.
GRID*    1143                           -.18333333730698.183333337306976
*        0.
GRID*    1144                           -.17500001192093.200000002980232
*        0.
GRID*    1145                           -.16875000298023.181250005960464
*        0.
GRID*    1146                           -.15000000596046.200000002980232
*        0.
GRID*    1147                           -.15000000596046.175000011920929
*        0.
GRID*    1148                           -.18333333730698.216666668653488
*        0.
GRID*    1149                           -.16875000298023 .21875
*        0.
GRID*    1150                           -.16666667163372.233333334326744
*        0.
$ ... 18 like lines cut
GRID     1160            -.25    .25     0.
GRID*    1161                           -.22499999403954 .25
*        0.
GRID*    1162                            -.25           .224999994039536
*        0.
GRID*    1163                           -.23125001788139.218750014901161
*        0.
GRID*    1164                           -.13333332538605-.23333333432674
*        0.
GRID*    1165                           -.13124999403954-.21875001490116
*        0.
GRID*    1166                           -.11666666716337-.21666666865349
*        0.
GRID*    1167                            -.125          -.20000000298023
*        0.
GRID*    1168                           -.10000000149012-.20000000298023
*        0.
GRID     1169            -.125   -.25    0.
GRID*    1170                           -.10000000149012 -.25
*        0.
GRID*    1171                           -.10000000149012-.22499999403954
*        0.
GRID*    1172                           -.11875000596046-.23125001788139
*        0.
GRID*    1173                           -.07500000298023 -.25
*        0.
GRID*    1174                           -.05000000447035 -.25
*        0.
GRID*    1175                            -.0666666701436-.23333333432674
*        0.
GRID*    1176                           -.08124999701977-.23125001788139
*        0.
GRID*    1177                           -.08333333581686-.21666666865349
*        0.
GRID*    1178                           -.07500000298023-.20000000298023
*        0.
GRID*    1179                            -.0687500089407-.21875001490116
*        0.
GRID*    1180                           -.05000000447035-.20000000298023
*        0.
GRID*    1181                           -.05000000447035-.22499999403954
*        0.
GRID*    1182                           -.08333333581686-.18333333730698
*        0.
GRID*    1183                           -.06875000149012-.18125000596046
*        0.
GRID*    1184                            -.0666666701436-.16666667163372
*        0.
GRID*    1185                           -.05000000447035-.15000000596046
*        0.
GRID*    1186                           -.05000000447035-.17500001192093
*        0.
GRID*    1187                           -.10000000149012-.17500001192093
*        0.
GRID*    1188                           -.08125000447035-.16875000298023
*        0.
GRID*    1189                           -.10000000149012-.15000000596046
*        0.
$ ... 74 like lines cut
GRID     1227            -.125   0.      0.
GRID*    1228                           -.10000000149012 0.
*        0.
GRID*    1229                           -.10000000149012-.02499999850988
*        0.
GRID*    1230                           -.11875000596046-.03124999813735
*        0.
GRID*    1231                            -.0666666701436-.03333333134651
*        0.
GRID*    1232                           -.08124999701977-.03125000372529
*        0.
GRID*    1233                           -.08333333581686-.01666666381061
*        0.
GRID*    1234                           -.07500000298023 0.
*        0.
GRID*    1235                            -.0687500089407-.01874999515712
*        0.
GRID*    1236                           -.05000000447035 0.
*        0.
GRID*    1237                           -.05000000447035-.02499999850988
*        0.
GRID*    1238                           -.08333333581686.016666665673256
*        0.
GRID*    1239                           -.06875000149012.018749998882413
*        0.
GRID*    1240                            -.0666666701436.033333331346512
*        0.
GRID*    1241                           -.05000000447035.049999997019768
*        0.
GRID*    1242                           -.05000000447035.024999998509884
*        0.
GRID*    1243                           -.10000000149012.024999998509884
*        0.
GRID*    1244                           -.08124999701977.031249998137355
*        0.
GRID*    1245                           -.10000000149012.049999997019768
*        0.
GRID*    1246                           -.07500000298023.049999997019768
*        0.
GRID*    1247                           -.11666666716337.016666665673256
*        0.
$ ... 116 like lines cut
GRID     1306            -.125   .25     0.
GRID*    1307                            -.1312500089407.218750014901161
*        0.
GRID*    1308                           -.03333333134651-.23333333432674
*        0.
GRID*    1309                            -.03125        -.21875001490116
*        0.
GRID*    1310                           -.01666666381061-.21666666865349
*        0.
GRID*    1311                           -.02499999850988-.20000000298023
*        0.
GRID*    1312                            0.             -.20000000298023
*        0.
GRID*    1313                           -.02499999850988 -.25
*        0.
GRID     1314            0.      -.25    0.
GRID*    1315                            0.             -.22499999403954
*        0.
GRID*    1316                            -.0187500026077-.23125001788139
*        0.
GRID*    1317                           .024999998509884 -.25
*        0.
GRID*    1318                           .049999997019768 -.25
*        0.
GRID*    1319                           .033333331346512-.23333333432674
*        0.
GRID*    1320                           .018749997019768-.23125001788139
*        0.
GRID*    1321                           .016666663810611-.21666666865349
*        0.
GRID*    1322                           .024999998509884-.20000000298023
*        0.
GRID*    1323                            .03125         -.21875001490116
*        0.
GRID*    1324                           .049999997019768-.20000000298023
*        0.
GRID*    1325                           .049999997019768-.22499999403954
*        0.
GRID*    1326                           .016666665673256-.18333333730698
*        0.
GRID*    1327                           .031249998137355-.18125000596046
*        0.
GRID*    1328                           .033333331346512-.16666667163372
*        0.
GRID*    1329                           .049999997019768-.15000000596046
*        0.
GRID*    1330                           .049999997019768-.17500001192093
*        0.
GRID*    1331                            0.             -.17500001192093
*        0.
GRID*    1332                           .018750000745058-.16875000298023
*        0.
GRID*    1333                            0.             -.15000000596046
*        0.
GRID*    1334                           .024999998509884-.15000000596046
*        0.
$ ... 20 like lines cut
GRID     1345            0.      -.125   0.
GRID*    1346                           -.01874999515712-.13124999403954
*        0.
GRID*    1347                           .033333331346512-.13333332538605
*        0.
GRID*    1348                           .018749998882413-.13124999403954
*        0.
GRID*    1349                           .016666663810611-.11666666716337
*        0.
GRID*    1350                           .024999998509884-.10000000149012
*        0.
GRID*    1351                           .031249994412065-.11874999850988
*        0.
GRID*    1352                           .049999997019768-.10000000149012
*        0.
GRID*    1353                           .049999997019768 -.125
*        0.
GRID*    1354                           .016666665673256-.08333333581686
*        0.
GRID*    1355                           .031249998137355-.08125000447035
*        0.
GRID*    1356                           .033333331346512 -.0666666701436
*        0.
GRID*    1357                           .049999997019768-.05000000447035
*        0.
GRID*    1358                           .049999997019768-.07500000298023
*        0.
GRID*    1359                            0.             -.07500000298023
*        0.
GRID*    1360                           .018749997019768-.06875000149012
*        0.
GRID*    1361                            0.             -.05000000447035
*        0.
GRID*    1362                           .024999998509884-.05000000447035
*        0.
GRID*    1363                           -.01666666567326-.08333333581686
*        0.
GRID*    1364                           -.01874999888241-.06875000149012
*        0.
GRID*    1365                           -.03333333134651 -.0666666701436
*        0.
$ ... 12 like lines cut
GRID     1372            0.      0.      0.
GRID*    1373                            0.             -.02499999850988
*        0.
GRID*    1374                           -.01874999515712-.03124999627471
*        0.
GRID*    1375                           .033333331346512-.03333333134651
*        0.
GRID*    1376                           .018749998882413-.03124999813735
*        0.
GRID*    1377                           .016666663810611-.01666666381061
*        0.
GRID*    1378                           .024999998509884 0.
*        0.
GRID*    1379                           .031249994412065-.01874999701977
*        0.
GRID*    1380                           .049999997019768 0.
*        0.
GRID*    1381                           .049999997019768-.02499999850988
*        0.
GRID*    1382                           .016666665673256.016666665673256
*        0.
GRID*    1383                           .031249998137355.018749998882413
*        0.
GRID*    1384                           .033333331346512.033333331346512
*        0.
GRID*    1385                           .049999997019768.049999997019768
*        0.
GRID*    1386                           .049999997019768.024999998509884
*        0.
GRID*    1387                            0.             .024999998509884
*        0.
GRID*    1388                           .018750004470348 .03125000372529
*        0.
GRID*    1389                            0.             .049999997019768
*        0.
GRID*    1390                           .024999998509884.049999997019768
*        0.
GRID*    1391                           -.01666666567326.016666665673256
*        0.
GRID*    1392                           -.01874999888241.031249998137355
*        0.
$ ... 44 like lines cut
GRID     1415            0.      .125    0.
GRID*    1416                           .018749998882413.131249994039536
*        0.
GRID*    1417                            0.             .150000005960464
*        0.
GRID*    1418                           .024999998509884.150000005960464
*        0.
GRID*    1419                           -.01666666567326.116666674613953
*        0.
GRID*    1420                           -.01875000074506.131249994039536
*        0.
GRID*    1421                           -.03333333134651.133333340287209
*        0.
GRID*    1422                           -.02499999850988.150000005960464
*        0.
GRID*    1423                           -.03124999627471.118750005960464
*        0.
GRID*    1424                           -.03333333134651 .16666667163372
*        0.
GRID*    1425                           -.03124999813735.181250005960464
*        0.
GRID*    1426                           -.01666666381061.183333337306976
*        0.
GRID*    1427                           -.02499999850988.200000002980232
*        0.
GRID*    1428                            0.             .200000002980232
*        0.
GRID*    1429                            0.             .175000011920929
*        0.
GRID*    1430                            -.0187500026077.168750002980232
*        0.
GRID*    1431                           .033333331346512 .16666667163372
*        0.
GRID*    1432                           .018749997019768.168749988079071
*        0.
GRID*    1433                           .016666663810611.183333337306976
*        0.
GRID*    1434                           .024999998509884.200000002980232
*        0.
GRID*    1435                            .03125         .181250005960464
*        0.
$ ... 18 like lines cut
GRID     1445            0.      .25     0.
GRID*    1446                           .024999998509884 .25
*        0.
GRID*    1447                           -.01666666567326.216666668653488
*        0.
GRID*    1448                           -.01874999888241.231250002980232
*        0.
GRID*    1449                           -.03333333134651.233333334326744
*        0.
GRID*    1450                           -.02499999850988 .25
*        0.
GRID*    1451                           -.03124999813735 .21875
*        0.
GRID*    1452                           .066666677594185-.23333333432674
*        0.
GRID*    1453                           .068750008940697-.21875001490116
*        0.
GRID*    1454                           .083333343267441-.21666666865349
*        0.
GRID*    1455                           .075000010430813-.20000000298023
*        0.
GRID*    1456                           .100000008940697-.20000000298023
*        0.
GRID*    1457                           .075000010430813 -.25
*        0.
GRID*    1458                           .100000008940697 -.25
*        0.
GRID*    1459                           .100000008940697-.22499999403954
*        0.
GRID*    1460                           .081250011920929-.23125001788139
*        0.
GRID     1461            .125    -.25    0.
GRID*    1462                           .150000005960464 -.25
*        0.
GRID*    1463                           .133333340287209-.23333333432674
*        0.
GRID*    1464                           .118750005960464-.23125001788139
*        0.
GRID*    1465                           .116666674613953-.21666666865349
*        0.
GRID*    1466                            .125           -.20000000298023
*        0.
GRID*    1467                           .131249994039536-.21875001490116
*        0.
GRID*    1468                           .150000005960464-.20000000298023
*        0.
GRID*    1469                           .150000005960464-.22499999403954
*        0.
GRID*    1470                           .116666674613953-.18333333730698
*        0.
GRID*    1471                           .131249994039536-.18125000596046
*        0.
GRID*    1472                           .133333340287209-.16666667163372
*        0.
GRID*    1473                           .150000005960464-.15000000596046
*        0.
GRID*    1474                           .150000005960464-.17500001192093
*        0.
GRID*    1475                           .100000008940697-.17500001192093
*        0.
GRID*    1476                           .118750005960464-.16875000298023
*        0.
GRID*    1477                           .100000008940697-.15000000596046
*        0.
GRID*    1478                            .125           -.15000000596046
*        0.
GRID*    1479                           .083333343267441-.18333333730698
*        0.
GRID*    1480                           .081250004470348-.16875000298023
*        0.
GRID*    1481                           .066666677594185-.16666667163372
*        0.
$ ... 80 like lines cut
GRID     1522            .125    0.      0.
GRID*    1523                           .131249994039536-.01874999888241
*        0.
GRID*    1524                           .150000005960464 0.
*        0.
GRID*    1525                           .150000005960464-.02499999850988
*        0.
GRID*    1526                           .116666674613953.016666665673256
*        0.
GRID*    1527                           .131249994039536.018750000745058
*        0.
GRID*    1528                           .133333340287209.033333331346512
*        0.
GRID*    1529                           .150000005960464.049999997019768
*        0.
GRID*    1530                           .150000005960464.024999998509884
*        0.
GRID*    1531                           .100000008940697.024999998509884
*        0.
GRID*    1532                           .118750005960464.031249998137355
*        0.
GRID*    1533                           .100000008940697.049999997019768
*        0.
GRID*    1534                            .125           .049999997019768
*        0.
GRID*    1535                           .083333343267441.016666665673256
*        0.
GRID*    1536                           .081250004470348.031249998137355
*        0.
GRID*    1537                           .066666677594185.033333331346512
*        0.
GRID*    1538                           .075000010430813.049999997019768
*        0.
GRID*    1539                           .068750008940697.018749995157123
*        0.
GRID*    1540                           .066666677594185.066666677594185
*        0.
GRID*    1541                           .068750008940697.081250011920929
*        0.
GRID*    1542                           .083333343267441.083333343267441
*        0.
$ ... 94 like lines cut
GRID     1590            .125    .25     0.
GRID*    1591                           .083333343267441.216666668653488
*        0.
GRID*    1592                           .081250004470348.231250002980232
*        0.
GRID*    1593                           .066666677594185.233333334326744
*        0.
GRID*    1594                           .075000010430813 .25
*        0.
GRID*    1595                           .068750016391277 .21875
*        0.
GRID*    1596                            .16666667163372-.23333333432674
*        0.
GRID*    1597                           .168749988079071-.21875001490116
*        0.
GRID*    1598                           .183333337306976-.21666666865349
*        0.
GRID*    1599                           .175000011920929-.20000000298023
*        0.
GRID*    1600                           .200000002980232-.20000000298023
*        0.
GRID*    1601                           .175000011920929 -.25
*        0.
GRID*    1602                           .200000002980232 -.25
*        0.
GRID*    1603                           .200000002980232-.22499999403954
*        0.
GRID*    1604                           .181250020861626-.23125001788139
*        0.
GRID*    1605                           .224999994039536 -.25
*        0.
GRID     1606            .25     -.25    0.
GRID*    1607                           .233333334326744-.23333333432674
*        0.
GRID*    1608                           .218750014901161-.23125001788139
*        0.
GRID*    1609                           .216666668653488-.21666666865349
*        0.
GRID*    1610                           .224999994039536-.20000000298023
*        0.
GRID*    1611                           .231250002980232-.21875001490116
*        0.
GRID*    1612                            .25            -.20000000298023
*        0.
GRID*    1613                            .25            -.22499999403954
*        0.
GRID*    1614                           .216666668653488-.18333333730698
*        0.
GRID*    1615                           .231250002980232-.18125000596046
*        0.
GRID*    1616                           .233333334326744-.16666667163372
*        0.
GRID*    1617                            .25            -.15000000596046
*        0.
GRID*    1618                            .25            -.17500001192093
*        0.
GRID*    1619                           .200000002980232-.17500001192093
*        0.
GRID*    1620                           .218750014901161-.16875000298023
*        0.
GRID*    1621                           .200000002980232-.15000000596046
*        0.
GRID*    1622                           .224999994039536-.15000000596046
*        0.
GRID*    1623                           .183333337306976-.18333333730698
*        0.
GRID*    1624                           .181250005960464-.16875000298023
*        0.
GRID*    1625                            .16666667163372-.16666667163372
*        0.
GRID*    1626                           .175000011920929-.15000000596046
*        0.
$ ... 28 like lines cut
GRID     1641            .25     -.125   0.
GRID*    1642                           .216666668653488-.08333333581686
*        0.
GRID*    1643                           .231250002980232-.08125000447035
*        0.
GRID*    1644                           .233333334326744 -.0666666701436
*        0.
GRID*    1645                            .25            -.05000000447035
*        0.
GRID*    1646                            .25            -.07500000298023
*        0.
GRID*    1647                           .200000002980232-.07500000298023
*        0.
GRID*    1648                           .218750014901161-.06875001639128
*        0.
GRID*    1649                           .200000002980232-.05000000447035
*        0.
GRID*    1650                           .224999994039536-.05000000447035
*        0.
GRID*    1651                           .183333337306976-.08333333581686
*        0.
GRID*    1652                           .181250005960464-.06875000149012
*        0.
GRID*    1653                            .16666667163372 -.0666666701436
*        0.
GRID*    1654                           .175000011920929-.05000000447035
*        0.
GRID*    1655                           .168750017881393-.08125000447035
*        0.
GRID*    1656                            .16666667163372-.03333333134651
*        0.
GRID*    1657                           .168749988079071-.01874999701977
*        0.
GRID*    1658                           .183333337306976-.01666666381061
*        0.
GRID*    1659                           .175000011920929 0.
*        0.
GRID*    1660                           .200000002980232 0.
*        0.
GRID*    1661                           .200000002980232-.02499999850988
*        0.
$ ... 12 like lines cut
GRID     1668            .25     0.      0.
GRID*    1669                            .25            -.02499999850988
*        0.
GRID*    1670                           .216666668653488.016666665673256
*        0.
GRID*    1671                           .231250002980232.018749998882413
*        0.
GRID*    1672                           .233333334326744.033333331346512
*        0.
GRID*    1673                            .25            .049999997019768
*        0.
GRID*    1674                            .25            .024999998509884
*        0.
GRID*    1675                           .200000002980232.024999998509884
*        0.
GRID*    1676                           .218750014901161 .03125
*        0.
GRID*    1677                           .200000002980232.049999997019768
*        0.
GRID*    1678                           .224999994039536.049999997019768
*        0.
GRID*    1679                           .183333337306976.016666665673256
*        0.
GRID*    1680                           .181250005960464.031249998137355
*        0.
GRID*    1681                            .16666667163372.033333331346512
*        0.
GRID*    1682                           .175000011920929.049999997019768
*        0.
GRID*    1683                           .168750017881393.018750002607703
*        0.
GRID*    1684                            .16666667163372.066666677594185
*        0.
GRID*    1685                           .168749988079071.081250011920929
*        0.
GRID*    1686                           .183333337306976.083333343267441
*        0.
GRID*    1687                           .175000011920929.100000008940697
*        0.
GRID*    1688                           .200000002980232.100000008940697
*        0.
$ ... 26 like lines cut
GRID     1702            .25     .125    0.
GRID*    1703                           .200000002980232 .125
*        0.
GRID*    1704                           .218750014901161.131249994039536
*        0.
GRID*    1705                           .200000002980232.150000005960464
*        0.
GRID*    1706                           .224999994039536.150000005960464
*        0.
GRID*    1707                           .183333337306976.116666674613953
*        0.
GRID*    1708                           .181250005960464.131249994039536
*        0.
GRID*    1709                            .16666667163372.133333340287209
*        0.
GRID*    1710                           .175000011920929.150000005960464
*        0.
GRID*    1711                           .168749988079071.118750005960464
*        0.
GRID*    1712                            .16666667163372 .16666667163372
*        0.
GRID*    1713                           .168749988079071.181250005960464
*        0.
GRID*    1714                           .183333337306976.183333337306976
*        0.
GRID*    1715                           .175000011920929.200000002980232
*        0.
GRID*    1716                           .200000002980232.200000002980232
*        0.
GRID*    1717                           .200000002980232.175000011920929
*        0.
GRID*    1718                           .181250020861626.168750017881393
*        0.
GRID*    1719                           .233333334326744 .16666667163372
*        0.
GRID*    1720                           .218750014901161.168749988079071
*        0.
GRID*    1721                           .216666668653488.183333337306976
*        0.
GRID*    1722                           .224999994039536.200000002980232
*        0.
$ ... 12 like lines cut
GRID     1729            .25     .25     0.
GRID*    1730                            .25            .224999994039536
*        0.
GRID*    1731                           .200000002980232.224999994039536
*        0.
GRID*    1732                           .218750014901161.231250002980232
*        0.
GRID*    1733                           .200000002980232 .25
*        0.
GRID*    1734                           .224999994039536 .25
*        0.
GRID*    1735                           .183333337306976.216666668653488
*        0.
GRID*    1736                           .181250005960464.231250002980232
*        0.
GRID*    1737                            .16666667163372.233333334326744
*        0.
GRID*    1738                           .175000011920929 .25
*        0.
GRID*    1739                           .168749988079071.218750014901161
*        0.
GRID*    2596                            -.25           -.20000000298023
*        0.
GRID*    4000                            0.              0.
*       .079999998211861

