
$ Elements and Element Properties for region : 2D_al7075_2mm
PSHELL*  1               1               5.0000002-4     1
*                        1
$ Pset: "2D_al7075_2mm" will be imported as: "pshell.1"
CQUAD4   50720   1       50038   50037   50325   50082
CQUAD4   50721   1       50037   50036   50324   50325
CQUAD4   50722   1       50036   50033   50085   50324
CQUAD4   50723   1       50082   50325   50327   50083
CQUAD4   50724   1       50325   50324   50326   50327
CQUAD4   50725   1       50324   50085   50086   50326
CQUAD4   50726   1       50326   50086   50087   50327
CQUAD4   50727   1       50327   50087   50084   50083
CQUAD4   50728   1       50034   50035   50328   50329
CQUAD4   50729   1       50035   50030   50088   50328
CQUAD4   50730   1       50329   50328   50330   50331
CQUAD4   50731   1       50328   50088   50089   50330
CQUAD4   50732   1       50034   50329   50085   50033
CQUAD4   50733   1       50329   50331   50086   50085
CQUAD4   50734   1       50331   50330   50087   50086
CQUAD4   50735   1       50330   50089   50084   50087
CQUAD4   50736   1       50030   50031   50333   50088
CQUAD4   50737   1       50031   50032   50332   50333
CQUAD4   50738   1       50032   50027   50090   50332
CQUAD4   50739   1       50088   50333   50335   50089
$ ... 556 like lines cut
$ Elements and Element Properties for region : 1D_Interiores
PBARL    2       1               BAR
*        5.0000002-4     .03
*
$ Pset: "1D_Interiores" will be imported as: "pbarl.2"
CBAR     50396   2       50027   50071   0.      0.      1.
                         0.      0.      -.01525 0.      0.      -.01525
CBAR     50397   2       50071   50072   0.      0.      1.
                         0.      0.      -.01525 0.      0.      -.01525
CBAR     50398   2       50072   50073   0.      0.      1.
                         0.      0.      -.01525 0.      0.      -.01525
CBAR     50399   2       50073   50074   0.      0.      1.
                         0.      0.      -.01525 0.      0.      -.01525
CBAR     50400   2       50074   50075   0.      0.      1.
                         0.      0.      -.01525 0.      0.      -.01525
CBAR     50401   2       50075   50076   0.      0.      1.
                         0.      0.      -.01525 0.      0.      -.01525
CBAR     50402   2       50076   50077   0.      0.      1.
                         0.      0.      -.01525 0.      0.      -.01525
CBAR     50403   2       50077   50078   0.      0.      1.
                         0.      0.      -.01525 0.      0.      -.01525
CBAR     50404   2       50078   50079   0.      0.      1.
                         0.      0.      -.01525 0.      0.      -.01525
CBAR     50405   2       50079   50080   0.      0.      1.
                         0.      0.      -.01525 0.      0.      -.01525
CBAR     50406   2       50080   50081   0.      0.      1.
                         0.      0.      -.01525 0.      0.      -.01525
CBAR     50407   2       50081   50039   0.      0.      1.
                         0.      0.      -.01525 0.      0.      -.01525
CBAR     50408   2       50038   50082   0.      0.      1.
                         0.      0.      -.01525 0.      0.      -.01525
CBAR     50409   2       50082   50083   0.      0.      1.
                         0.      0.      -.01525 0.      0.      -.01525
CBAR     50410   2       50083   50084   0.      0.      1.
                         0.      0.      -.01525 0.      0.      -.01525
CBAR     50411   2       50033   50085   0.      0.      1.
                         0.      0.      -.01525 0.      0.      -.01525
CBAR     50412   2       50085   50086   0.      0.      1.
                         0.      0.      -.01525 0.      0.      -.01525
CBAR     50413   2       50086   50087   0.      0.      1.
                         0.      0.      -.01525 0.      0.      -.01525
CBAR     50414   2       50087   50084   0.      0.      1.
                         0.      0.      -.01525 0.      0.      -.01525
CBAR     50415   2       50030   50088   0.      0.      1.
                         0.      0.      -.01525 0.      0.      -.01525
$ ... 608 like lines cut
$ Elements and Element Properties for region : 1D_Exteriores
PBARL    3       1               BAR
*        5.0000002-4     .03
*
$ Pset: "1D_Exteriores" will be imported as: "pbarl.3"
CBAR     50324   3       50612   50000   0.      0.      1.
                         0.      0.      -.01525 0.      0.      -.01525
CBAR     50325   3       50000   50001   0.      0.      1.
                         0.      0.      -.01525 0.      0.      -.01525
CBAR     50326   3       50001   50002   0.      0.      1.
                         0.      0.      -.01525 0.      0.      -.01525
CBAR     50327   3       50003   50004   0.      0.      1.
                         0.      0.      -.01525 0.      0.      -.01525
CBAR     50328   3       50004   50005   0.      0.      1.
                         0.      0.      -.01525 0.      0.      -.01525
CBAR     50329   3       50005   50612   0.      0.      1.
                         0.      0.      -.01525 0.      0.      -.01525
CBAR     50330   3       50006   50007   0.      0.      1.
                         0.      0.      -.01525 0.      0.      -.01525
CBAR     50331   3       50007   50008   0.      0.      1.
                         0.      0.      -.01525 0.      0.      -.01525
CBAR     50332   3       50008   50003   0.      0.      1.
                         0.      0.      -.01525 0.      0.      -.01525
CBAR     50333   3       50009   50010   0.      0.      1.
                         0.      0.      -.01525 0.      0.      -.01525
CBAR     50334   3       50010   50011   0.      0.      1.
                         0.      0.      -.01525 0.      0.      -.01525
CBAR     50335   3       50011   50006   0.      0.      1.
                         0.      0.      -.01525 0.      0.      -.01525
CBAR     50336   3       50012   50013   0.      0.      1.
                         0.      0.      -.01525 0.      0.      -.01525
CBAR     50337   3       50013   50014   0.      0.      1.
                         0.      0.      -.01525 0.      0.      -.01525
CBAR     50338   3       50014   50009   0.      0.      1.
                         0.      0.      -.01525 0.      0.      -.01525
CBAR     50339   3       50015   50016   0.      0.      1.
                         0.      0.      -.01525 0.      0.      -.01525
CBAR     50340   3       50016   50017   0.      0.      1.
                         0.      0.      -.01525 0.      0.      -.01525
CBAR     50341   3       50017   50012   0.      0.      1.
                         0.      0.      -.01525 0.      0.      -.01525
CBAR     50342   3       50018   50019   0.      0.      1.
                         0.      0.      -.01525 0.      0.      -.01525
CBAR     50343   3       50019   50020   0.      0.      1.
                         0.      0.      -.01525 0.      0.      -.01525
$ ... 104 like lines cut
$ Elements and Element Properties for region : 0D_11kg
CONM2    51296   55000           11.
$ Referenced Material Records
$ Material Record : AL7075
$ Description of Material : Date: 30-Apr-21           Time: 21:19:54
MAT1*    1               7.0999998+10                    .33
*        2800.           2.2-5           20.
$ Multipoint Constraints of the Entire Model
RBE2*    55100           55000           123456          50076
*        50119           50177           50209          2.200000017183-5
$ Nodes of the Entire Model
GRID*    50000                          .250000931842245.194445379598059
*        0.
GRID*    50001                          .250000931842245.222223170621313
*        0.
GRID*    50002                          .250000931842245.250000931842245
*        0.
GRID*    50003                          .250000931842245.083334275109686
*        0.
GRID*    50004                          .250000931842245 .11111206613294
*        0.
GRID*    50005                          .250000931842245.138889827353872
*        0.
GRID*    50006                          .2500009318422456.040166988519-7
*        0.
GRID*    50007                          .250000931842245.027778395039953
*        0.
GRID*    50008                          .250000931842245.055556156260885
*        0.
GRID*    50009                          .250000931842245-.08333272434958
*        0.
GRID*    50010                          .250000931842245-.05555494822749
*        0.
GRID*    50011                          .250000931842245-.02777717210539
*        0.
GRID*    50012                          .250000931842245-.16666638799199
*        0.
GRID*    50013                          .250000931842245-.13888861186989
*        0.
GRID*    50014                          .250000931842245-.11111082829722
*        0.
GRID*    50015                          .250000931842245-.24999972380885
*        0.
GRID*    50016                          .250000931842245-.22222194582411
*        0.
GRID*    50017                          .250000931842245-.19444416411408
*        0.
GRID*    50018                          .166667618377127-.24999972380885
*        0.
GRID*    50019                          .194445379598059-.24999972380885
*        0.
$ ... 1188 like lines cut
